packages/openpy-fx-tools-dss/openpy_fx_tools_dss-0.1.6-py3-none-any.whl/openpy_fx_tools_dss/Examples/13Bus/xlsx_files/DSS_files_from_xlsx/Master_13BusIEEE.dss
Clear

New Circuit.13BusIEEE

Redirect LineCode_13BusIEEE.dss
Redirect LoadShape_13BusIEEE.dss
Redirect GrowthShape_13BusIEEE.dss
Redirect TCC_Curve_13BusIEEE.dss
Redirect Spectrum_13BusIEEE.dss
Redirect Line_13BusIEEE.dss
Redirect Vsource_13BusIEEE.dss
Redirect Load_13BusIEEE.dss
Redirect Transformer_13BusIEEE.dss
Redirect RegControl_13BusIEEE.dss
Redirect Capacitor_13BusIEEE.dss
Redirect Switch_13BusIEEE.dss

New Monitor.M1 element=Line.650632 terminal=1 mode=0


Redirect Voltagebases_13BusIEEE.dss

LatLongCoords Buscoords_13BusIEEE.csv

solve mode=daily stepsize=0 number=1
